** sch_path: /home/galihat1704/desain/Faisal-icdec-week4/opamp/mag/opampfinal.sch
.subckt opampfinal VDD VIN VIP OUT GND RS
*.PININFO VDD:B VIN:B VIP:B OUT:B GND:B RS:B
*  x3 -  pmoscs  IS MISSING !!!!
*  x1 -  nmoscs  IS MISSING !!!!
*  x2 -  nmoscs2  IS MISSING !!!!
*  x4 -  pmosdif  IS MISSING !!!!
.ends
.end
